<?xml version="1.0" encoding="UTF-8"?>

<!-- generated on Thu Aug 22 16:29:41 2019 by Eclipse SUMO duarouter Version 1.2.0
<configuration xmlns:xsi="http://www.w3.org/2001/XMLSchema-instance" xsi:noNamespaceSchemaLocation="http://sumo.dlr.de/xsd/duarouterConfiguration.xsd">

    <input>
        <net-file value="./o2l_sumo_files/net.net.xml"/>
        <route-files value="trips.trips.xml"/>
    </input>

    <output>
        <output-file value="o2l.route.xml"/>
        <alternatives-output value="o2l.route.alt.xml"/>
    </output>

    <time>
        <begin value="0"/>
        <end value="3600"/>
    </time>

    <report>
        <no-warnings value="true"/>
        <ignore-errors value="true"/>
        <no-step-log value="true"/>
    </report>

</configuration>
-->

<routes xmlns:xsi="http://www.w3.org/2001/XMLSchema-instance" xsi:noNamespaceSchemaLocation="http://sumo.dlr.de/xsd/routes_file.xsd">
    <!-- <route id="route01" edges="E-road13-section6-67 E-road13-section5-65 "/>
    <vehicle type="passenger1" departPos="random" departSpeed="0.0" arrivalPos="random" arrivalSpeed="0.0" depart="0" id="ego_vehicle" route="route01" color="1,0,0" />  -->
    <vehicle id="0" type="passenger1" departPos="random" departSpeed="0.0" arrivalPos="random" arrivalSpeed="0.0" depart="0.00">
        <route edges="E-road13-section6-67 E-road13-section5-65 E-road13-section4-63 E-road13-section3-61 E-road13-section2-59 E-road13-section1-57 E-road13-section0-55 E-road14-section0-68 E-road14-section1-70 E-road14-section2-72 E-road14-section3-74 E-road14-section4-76 E-road15-section3-85 E-road15-section2-83 E-road15-section1-81 E-road15-section0-79 E-road11-section0-50 E-road12-section0-53 E-road10-section0-49 E-road1-section4-9 E-road1-section3-7 E-road1-section2-5 E-road1-section1-3 E-road1-section0-1 E-road9-section0-47 E-road8-section0-45 E-road8-section1-46 E-road6-section6-41 E-road6-section5-39 E-road6-section4-37 E-road6-section3-35 E-road6-section2-33 E-road6-section1-31 E-road6-section0-29 E-road2-section3-17 E-road2-section2-15 E-road2-section1-13 E-road2-section0-11 E-road4-section1-25 E-road4-section0-23 E-road5-section0-27 E-road3-section1-21 E-road3-section0-19 E-road6-section0-28 E-road6-section1-30 E-road6-section2-32 E-road6-section3-34 E-road6-section4-36 E-road6-section5-38 E-road6-section6-40 E-road7-section0-42 E-road7-section1-43 E-road7-section2-44 E-road1-section0-0 E-road1-section1-2 E-road1-section2-4 E-road1-section3-6 E-road1-section4-8 E-road10-section0-48 E-road12-section0-52 E-road11-section0-51 E-road15-section0-78 E-road15-section1-80 E-road15-section2-82 E-road15-section3-84 E-road14-section4-77 E-road14-section3-75 E-road14-section2-73 E-road14-section1-71 E-road14-section0-69"/>
    </vehicle>
    <vehicle id="1" type="passenger1" departPos="random" departSpeed="0.0" arrivalPos="random" arrivalSpeed="0.0" type="passenger1" departPos="random" departSpeed="0.0" arrivalPos="random" arrivalSpeed="0.0" depart="1.00">
        <route edges="E-road13-section2-58 E-road13-section3-60 E-road13-section4-62 E-road13-section5-64 E-road13-section6-66 E-road1-section4-9 E-road1-section3-7 E-road1-section2-5 E-road1-section1-3 E-road1-section0-1 E-road9-section0-47 E-road8-section0-45 E-road8-section1-46 E-road6-section6-41 E-road6-section5-39 E-road6-section4-37 E-road6-section3-35 E-road6-section2-33 E-road6-section1-31 E-road6-section0-29 E-road2-section3-17 E-road2-section2-15 E-road2-section1-13 E-road2-section0-11 E-road4-section1-25 E-road4-section0-23 E-road5-section0-27 E-road3-section1-21 E-road3-section0-19 E-road6-section0-28 E-road6-section1-30 E-road6-section2-32 E-road6-section3-34 E-road6-section4-36 E-road6-section5-38 E-road6-section6-40 E-road7-section0-42 E-road7-section1-43 E-road7-section2-44 E-road1-section0-0 E-road1-section1-2 E-road1-section2-4 E-road1-section3-6 E-road1-section4-8 E-road13-section6-67 E-road13-section5-65 E-road13-section4-63 E-road13-section3-61 E-road13-section2-59 E-road13-section1-57 E-road13-section0-55 E-road14-section0-68 E-road14-section1-70 E-road14-section2-72 E-road14-section3-74 E-road14-section4-76 E-road15-section3-85"/>
    </vehicle>
    <vehicle id="2" type="passenger1" departPos="random" departSpeed="0.0" arrivalPos="random" arrivalSpeed="0.0" type="passenger1" departPos="random" departSpeed="0.0" arrivalPos="random" arrivalSpeed="0.0" depart="2.00">
        <route edges="E-road6-section3-34 E-road6-section4-36 E-road6-section5-38 E-road6-section6-40 E-road7-section0-42 E-road7-section1-43 E-road7-section2-44 E-road1-section0-0 E-road1-section1-2 E-road1-section2-4 E-road1-section3-6 E-road1-section4-8 E-road10-section0-48 E-road12-section0-52 E-road11-section0-51 E-road15-section0-78 E-road15-section1-80 E-road15-section2-82 E-road15-section3-84 E-road14-section4-77 E-road14-section3-75 E-road14-section2-73 E-road14-section1-71 E-road14-section0-69 E-road13-section0-54 E-road13-section1-56 E-road13-section2-58 E-road13-section3-60 E-road13-section4-62 E-road13-section5-64 E-road13-section6-66 E-road1-section4-9 E-road1-section3-7 E-road1-section2-5 E-road1-section1-3 E-road1-section0-1 E-road9-section0-47 E-road8-section0-45"/>
    </vehicle>
    <vehicle id="3" type="passenger1" departPos="random" departSpeed="0.0" arrivalPos="random" arrivalSpeed="0.0" depart="3.00">
        <route edges="E-road13-section0-54 E-road13-section1-56 E-road13-section2-58 E-road13-section3-60 E-road13-section4-62 E-road13-section5-64 E-road13-section6-66 E-road10-section0-48 E-road12-section0-52 E-road11-section0-51 E-road15-section0-78 E-road15-section1-80 E-road15-section2-82 E-road15-section3-84 E-road14-section4-77 E-road14-section3-75"/>
    </vehicle>
    <vehicle id="4" type="passenger1" departPos="random" departSpeed="0.0" arrivalPos="random" arrivalSpeed="0.0" depart="4.00">
        <route edges="E-road6-section1-31 E-road6-section0-29 E-road2-section3-17 E-road2-section2-15 E-road2-section1-13 E-road2-section0-11 E-road4-section1-25 E-road4-section0-23 E-road5-section0-27 E-road3-section1-21 E-road3-section0-19 E-road6-section0-28"/>
    </vehicle>
    <vehicle id="5" type="passenger1" departPos="random" departSpeed="0.0" arrivalPos="random" arrivalSpeed="0.0" depart="5.00">
        <route edges="E-road13-section4-63 E-road13-section3-61 E-road13-section2-59 E-road13-section1-57 E-road13-section0-55"/>
    </vehicle>
    <vehicle id="6" type="passenger1" departPos="random" departSpeed="0.0" arrivalPos="random" arrivalSpeed="0.0" depart="6.00">
        <route edges="E-road7-section2-44 E-road1-section0-0 E-road1-section1-2 E-road1-section2-4"/>
    </vehicle>
    <vehicle id="7" type="passenger1" departPos="random" departSpeed="0.0" arrivalPos="random" arrivalSpeed="0.0" depart="7.00">
        <route edges="E-road10-section0-49 E-road13-section6-67 E-road13-section5-65"/>
    </vehicle>
    <vehicle id="8" type="passenger1" departPos="random" departSpeed="0.0" arrivalPos="random" arrivalSpeed="0.0" depart="8.00">
        <route edges="E-road15-section0-79 E-road11-section0-50 E-road12-section0-53 E-road10-section0-49 E-road13-section6-67 E-road13-section5-65 E-road13-section4-63 E-road13-section3-61 E-road13-section2-59 E-road13-section1-57 E-road13-section0-55 E-road14-section0-68 E-road14-section1-70 E-road14-section2-72 E-road14-section3-74 E-road14-section4-76 E-road15-section3-85 E-road15-section2-83"/>
    </vehicle>
    <vehicle id="9" type="passenger1" departPos="random" departSpeed="0.0" arrivalPos="random" arrivalSpeed="0.0" depart="9.00">
        <route edges="E-road15-section1-81 E-road15-section0-79 E-road11-section0-50 E-road12-section0-53 E-road10-section0-49 E-road1-section4-9 E-road1-section3-7 E-road1-section2-5 E-road1-section1-3 E-road1-section0-1 E-road9-section0-47 E-road8-section0-45 E-road8-section1-46 E-road6-section6-41 E-road6-section5-39 E-road6-section4-37 E-road6-section3-35 E-road6-section2-33 E-road6-section1-31 E-road6-section0-29 E-road2-section3-17 E-road2-section2-15 E-road2-section1-13 E-road2-section0-11 E-road4-section1-25 E-road4-section0-23 E-road5-section0-27 E-road3-section1-21 E-road3-section0-19 E-road6-section0-28 E-road6-section1-30 E-road6-section2-32 E-road6-section3-34 E-road6-section4-36 E-road6-section5-38 E-road6-section6-40 E-road7-section0-42 E-road7-section1-43 E-road7-section2-44 E-road1-section0-0 E-road1-section1-2 E-road1-section2-4 E-road1-section3-6 E-road1-section4-8 E-road10-section0-48 E-road12-section0-52 E-road11-section0-51 E-road15-section0-78 E-road15-section1-80 E-road15-section2-82 E-road15-section3-84 E-road14-section4-77 E-road14-section3-75 E-road14-section2-73 E-road14-section1-71 E-road14-section0-69 E-road13-section0-54"/>
    </vehicle>
    <vehicle id="10" type="passenger1" departPos="random" departSpeed="0.0" arrivalPos="random" arrivalSpeed="0.0" depart="10.00">
        <route edges="E-road2-section0-11 E-road4-section1-25 E-road4-section0-23 E-road5-section0-27 E-road3-section1-21 E-road3-section0-19 E-road6-section0-28 E-road6-section1-30 E-road6-section2-32 E-road6-section3-34 E-road6-section4-36 E-road6-section5-38 E-road6-section6-40 E-road7-section0-42 E-road7-section1-43 E-road7-section2-44 E-road1-section0-0 E-road1-section1-2 E-road1-section2-4 E-road1-section3-6 E-road1-section4-8 E-road10-section0-48 E-road12-section0-52 E-road11-section0-51 E-road15-section0-78 E-road15-section1-80 E-road15-section2-82 E-road15-section3-84 E-road14-section4-77 E-road14-section3-75 E-road14-section2-73 E-road14-section1-71 E-road14-section0-69 E-road13-section0-54 E-road13-section1-56 E-road13-section2-58 E-road13-section3-60 E-road13-section4-62 E-road13-section5-64"/>
    </vehicle>
    <vehicle id="11" type="passenger1" departPos="random" departSpeed="0.0" arrivalPos="random" arrivalSpeed="0.0" depart="11.00">
        <route edges="E-road13-section0-55 E-road14-section0-68 E-road14-section1-70 E-road14-section2-72 E-road14-section3-74 E-road14-section4-76 E-road15-section3-85 E-road15-section2-83 E-road15-section1-81 E-road15-section0-79 E-road11-section0-50 E-road12-section0-53 E-road10-section0-49 E-road1-section4-9 E-road1-section3-7 E-road1-section2-5 E-road1-section1-3 E-road1-section0-1 E-road9-section0-47 E-road8-section0-45 E-road8-section1-46 E-road6-section6-41 E-road6-section5-39 E-road6-section4-37 E-road6-section3-35 E-road6-section2-33 E-road6-section1-31 E-road6-section0-29 E-road3-section0-18 E-road3-section1-20 E-road5-section0-26 E-road4-section0-22 E-road4-section1-24 E-road2-section0-10 E-road2-section1-12 E-road2-section2-14"/>
    </vehicle>
    <vehicle id="12" type="passenger1" departPos="random" departSpeed="0.0" arrivalPos="random" arrivalSpeed="0.0" depart="12.00">
        <route edges="E-road13-section6-67 E-road13-section5-65 E-road13-section4-63 E-road13-section3-61 E-road13-section2-59"/>
    </vehicle>
    <vehicle id="13" type="passenger1" departPos="random" departSpeed="0.0" arrivalPos="random" arrivalSpeed="0.0" depart="13.00">
        <route edges="E-road4-section1-24 E-road2-section0-10 E-road2-section1-12 E-road2-section2-14 E-road2-section3-16 E-road6-section0-28 E-road6-section1-30 E-road6-section2-32 E-road6-section3-34"/>
    </vehicle>
    <vehicle id="14" type="passenger1" departPos="random" departSpeed="0.0" arrivalPos="random" arrivalSpeed="0.0" depart="14.00">
        <route edges="E-road11-section0-51 E-road15-section0-78 E-road15-section1-80 E-road15-section2-82 E-road15-section3-84 E-road14-section4-77 E-road14-section3-75 E-road14-section2-73 E-road14-section1-71 E-road14-section0-69 E-road13-section0-54 E-road13-section1-56 E-road13-section2-58 E-road13-section3-60 E-road13-section4-62 E-road13-section5-64 E-road13-section6-66 E-road1-section4-9 E-road1-section3-7 E-road1-section2-5 E-road1-section1-3 E-road1-section0-1 E-road9-section0-47 E-road8-section0-45 E-road8-section1-46 E-road6-section6-41 E-road6-section5-39 E-road6-section4-37 E-road6-section3-35 E-road6-section2-33 E-road6-section1-31 E-road6-section0-29 E-road2-section3-17 E-road2-section2-15 E-road2-section1-13 E-road2-section0-11 E-road4-section1-25 E-road4-section0-23 E-road5-section0-27 E-road3-section1-21 E-road3-section0-19 E-road6-section0-28 E-road6-section1-30 E-road6-section2-32 E-road6-section3-34"/>
    </vehicle>
    <vehicle id="15" type="passenger1" departPos="random" departSpeed="0.0" arrivalPos="random" arrivalSpeed="0.0" depart="15.00">
        <route edges="E-road8-section0-45 E-road8-section1-46 E-road6-section6-41 E-road6-section5-39 E-road6-section4-37 E-road6-section3-35 E-road6-section2-33 E-road6-section1-31 E-road6-section0-29 E-road3-section0-18 E-road3-section1-20 E-road5-section0-26 E-road4-section0-22 E-road4-section1-24 E-road2-section0-10"/>
    </vehicle>
    <vehicle id="16" type="passenger1" departPos="random" departSpeed="0.0" arrivalPos="random" arrivalSpeed="0.0" depart="16.00">
        <route edges="E-road13-section5-64 E-road13-section6-66 E-road1-section4-9 E-road1-section3-7 E-road1-section2-5 E-road1-section1-3 E-road1-section0-1 E-road9-section0-47 E-road8-section0-45 E-road8-section1-46 E-road6-section6-41 E-road6-section5-39 E-road6-section4-37 E-road6-section3-35 E-road6-section2-33"/>
    </vehicle>
    <vehicle id="17" type="passenger1" departPos="random" departSpeed="0.0" arrivalPos="random" arrivalSpeed="0.0" depart="17.00">
        <route edges="E-road6-section0-29 E-road2-section3-17 E-road2-section2-15 E-road2-section1-13 E-road2-section0-11 E-road4-section1-25 E-road4-section0-23 E-road5-section0-27 E-road3-section1-21 E-road3-section0-19 E-road6-section0-28 E-road6-section1-30 E-road6-section2-32 E-road6-section3-34 E-road6-section4-36 E-road6-section5-38 E-road6-section6-40 E-road7-section0-42 E-road7-section1-43 E-road7-section2-44 E-road1-section0-0 E-road1-section1-2 E-road1-section2-4 E-road1-section3-6 E-road1-section4-8 E-road13-section6-67 E-road13-section5-65 E-road13-section4-63 E-road13-section3-61 E-road13-section2-59 E-road13-section1-57 E-road13-section0-55 E-road14-section0-68 E-road14-section1-70 E-road14-section2-72 E-road14-section3-74 E-road14-section4-76 E-road15-section3-85 E-road15-section2-83 E-road15-section1-81 E-road15-section0-79 E-road11-section0-50 E-road12-section0-53 E-road10-section0-49"/>
    </vehicle>
    <vehicle id="18" type="passenger1" departPos="random" departSpeed="0.0" arrivalPos="random" arrivalSpeed="0.0" depart="18.00">
        <route edges="E-road1-section1-3 E-road1-section0-1 E-road9-section0-47 E-road8-section0-45 E-road8-section1-46 E-road6-section6-41 E-road6-section5-39 E-road6-section4-37 E-road6-section3-35 E-road6-section2-33 E-road6-section1-31 E-road6-section0-29 E-road3-section0-18 E-road3-section1-20"/>
    </vehicle>
    <vehicle id="19" type="passenger1" departPos="random" departSpeed="0.0" arrivalPos="random" arrivalSpeed="0.0" depart="19.00">
        <route edges="E-road7-section0-42 E-road7-section1-43 E-road7-section2-44 E-road1-section0-0 E-road1-section1-2 E-road1-section2-4 E-road1-section3-6 E-road1-section4-8 E-road10-section0-48 E-road12-section0-52 E-road11-section0-51 E-road15-section0-78 E-road15-section1-80 E-road15-section2-82 E-road15-section3-84 E-road14-section4-77 E-road14-section3-75 E-road14-section2-73 E-road14-section1-71 E-road14-section0-69 E-road13-section0-54 E-road13-section1-56 E-road13-section2-58 E-road13-section3-60 E-road13-section4-62 E-road13-section5-64 E-road13-section6-66 E-road1-section4-9 E-road1-section3-7 E-road1-section2-5 E-road1-section1-3 E-road1-section0-1 E-road9-section0-47 E-road8-section0-45 E-road8-section1-46 E-road6-section6-41 E-road6-section5-39 E-road6-section4-37 E-road6-section3-35 E-road6-section2-33 E-road6-section1-31 E-road6-section0-29 E-road3-section0-18 E-road3-section1-20 E-road5-section0-26 E-road4-section0-22 E-road4-section1-24"/>
    </vehicle>
    <vehicle id="20" type="passenger1" departPos="random" departSpeed="0.0" arrivalPos="random" arrivalSpeed="0.0" depart="20.00">
        <route edges="E-road13-section0-55 E-road14-section0-68 E-road14-section1-70 E-road14-section2-72 E-road14-section3-74 E-road14-section4-76 E-road15-section3-85 E-road15-section2-83 E-road15-section1-81 E-road15-section0-79 E-road11-section0-50 E-road12-section0-53 E-road10-section0-49 E-road1-section4-9 E-road1-section3-7 E-road1-section2-5 E-road1-section1-3 E-road1-section0-1 E-road9-section0-47 E-road8-section0-45 E-road8-section1-46 E-road6-section6-41 E-road6-section5-39 E-road6-section4-37 E-road6-section3-35 E-road6-section2-33 E-road6-section1-31 E-road6-section0-29 E-road2-section3-17 E-road2-section2-15 E-road2-section1-13 E-road2-section0-11 E-road4-section1-25 E-road4-section0-23 E-road5-section0-27 E-road3-section1-21 E-road3-section0-19 E-road6-section0-28 E-road6-section1-30 E-road6-section2-32 E-road6-section3-34 E-road6-section4-36 E-road6-section5-38 E-road6-section6-40 E-road7-section0-42 E-road7-section1-43 E-road7-section2-44 E-road1-section0-0 E-road1-section1-2 E-road1-section2-4 E-road1-section3-6 E-road1-section4-8 E-road10-section0-48 E-road12-section0-52 E-road11-section0-51"/>
    </vehicle>
    <vehicle id="21" type="passenger1" departPos="random" departSpeed="0.0" arrivalPos="random" arrivalSpeed="0.0" depart="21.00">
        <route edges="E-road2-section1-12 E-road2-section2-14 E-road2-section3-16 E-road6-section0-28 E-road6-section1-30 E-road6-section2-32 E-road6-section3-34 E-road6-section4-36 E-road6-section5-38 E-road6-section6-40 E-road7-section0-42 E-road7-section1-43 E-road7-section2-44 E-road1-section0-0 E-road1-section1-2 E-road1-section2-4 E-road1-section3-6 E-road1-section4-8 E-road10-section0-48 E-road12-section0-52 E-road11-section0-51 E-road15-section0-78 E-road15-section1-80 E-road15-section2-82 E-road15-section3-84 E-road14-section4-77 E-road14-section3-75 E-road14-section2-73 E-road14-section1-71 E-road14-section0-69 E-road13-section0-54 E-road13-section1-56 E-road13-section2-58 E-road13-section3-60 E-road13-section4-62 E-road13-section5-64 E-road13-section6-66 E-road1-section4-9 E-road1-section3-7 E-road1-section2-5 E-road1-section1-3 E-road1-section0-1 E-road9-section0-47 E-road8-section0-45 E-road8-section1-46 E-road6-section6-41 E-road6-section5-39 E-road6-section4-37 E-road6-section3-35 E-road6-section2-33 E-road6-section1-31 E-road6-section0-29 E-road2-section3-17 E-road2-section2-15 E-road2-section1-13 E-road2-section0-11"/>
    </vehicle>
    <vehicle id="22" type="passenger1" departPos="random" departSpeed="0.0" arrivalPos="random" arrivalSpeed="0.0" depart="22.00">
        <route edges="E-road3-section1-20 E-road5-section0-26 E-road4-section0-22 E-road4-section1-24 E-road2-section0-10 E-road2-section1-12 E-road2-section2-14 E-road2-section3-16 E-road6-section0-28 E-road6-section1-30 E-road6-section2-32 E-road6-section3-34 E-road6-section4-36 E-road6-section5-38 E-road6-section6-40 E-road7-section0-42 E-road7-section1-43"/>
    </vehicle>
    <vehicle id="23" type="passenger1" departPos="random" departSpeed="0.0" arrivalPos="random" arrivalSpeed="0.0" depart="23.00">
        <route edges="E-road1-section1-3 E-road1-section0-1 E-road9-section0-47 E-road8-section0-45 E-road8-section1-46 E-road6-section6-41 E-road6-section5-39 E-road6-section4-37 E-road6-section3-35 E-road6-section2-33 E-road6-section1-31 E-road6-section0-29 E-road2-section3-17 E-road2-section2-15 E-road2-section1-13 E-road2-section0-11 E-road4-section1-25 E-road4-section0-23 E-road5-section0-27 E-road3-section1-21 E-road3-section0-19 E-road6-section0-28 E-road6-section1-30 E-road6-section2-32 E-road6-section3-34 E-road6-section4-36 E-road6-section5-38 E-road6-section6-40 E-road7-section0-42 E-road7-section1-43 E-road7-section2-44 E-road1-section0-0 E-road1-section1-2 E-road1-section2-4 E-road1-section3-6 E-road1-section4-8 E-road10-section0-48 E-road12-section0-52 E-road11-section0-51 E-road15-section0-78 E-road15-section1-80 E-road15-section2-82 E-road15-section3-84 E-road14-section4-77 E-road14-section3-75 E-road14-section2-73 E-road14-section1-71 E-road14-section0-69 E-road13-section0-54 E-road13-section1-56 E-road13-section2-58 E-road13-section3-60 E-road13-section4-62 E-road13-section5-64"/>
    </vehicle>
    <vehicle id="24" type="passenger1" departPos="random" departSpeed="0.0" arrivalPos="random" arrivalSpeed="0.0" depart="24.00">
        <route edges="E-road13-section6-66 E-road1-section4-9 E-road1-section3-7 E-road1-section2-5 E-road1-section1-3 E-road1-section0-1 E-road9-section0-47 E-road8-section0-45 E-road8-section1-46 E-road6-section6-41 E-road6-section5-39 E-road6-section4-37 E-road6-section3-35 E-road6-section2-33 E-road6-section1-31 E-road6-section0-29 E-road2-section3-17 E-road2-section2-15 E-road2-section1-13 E-road2-section0-11 E-road4-section1-25 E-road4-section0-23 E-road5-section0-27 E-road3-section1-21 E-road3-section0-19 E-road6-section0-28 E-road6-section1-30 E-road6-section2-32 E-road6-section3-34 E-road6-section4-36"/>
    </vehicle>
    <vehicle id="25" type="passenger1" departPos="random" departSpeed="0.0" arrivalPos="random" arrivalSpeed="0.0" depart="25.00">
        <route edges="E-road1-section3-6 E-road1-section4-8 E-road10-section0-48"/>
    </vehicle>
    <vehicle id="26" type="passenger1" departPos="random" departSpeed="0.0" arrivalPos="random" arrivalSpeed="0.0" depart="26.00">
        <route edges="E-road7-section1-43 E-road7-section2-44 E-road1-section0-0 E-road1-section1-2 E-road1-section2-4 E-road1-section3-6 E-road1-section4-8 E-road10-section0-48 E-road12-section0-52 E-road11-section0-51 E-road15-section0-78 E-road15-section1-80 E-road15-section2-82 E-road15-section3-84 E-road14-section4-77 E-road14-section3-75 E-road14-section2-73 E-road14-section1-71 E-road14-section0-69 E-road13-section0-54 E-road13-section1-56 E-road13-section2-58 E-road13-section3-60"/>
    </vehicle>
    <vehicle id="27" type="passenger1" departPos="random" departSpeed="0.0" arrivalPos="random" arrivalSpeed="0.0" depart="27.00">
        <route edges="E-road4-section1-24 E-road2-section0-10 E-road2-section1-12 E-road2-section2-14 E-road2-section3-16 E-road6-section0-28 E-road6-section1-30 E-road6-section2-32 E-road6-section3-34 E-road6-section4-36 E-road6-section5-38 E-road6-section6-40 E-road7-section0-42 E-road7-section1-43 E-road7-section2-44 E-road1-section0-0 E-road1-section1-2 E-road1-section2-4 E-road1-section3-6 E-road1-section4-8 E-road10-section0-48 E-road12-section0-52 E-road11-section0-51 E-road15-section0-78 E-road15-section1-80 E-road15-section2-82 E-road15-section3-84 E-road14-section4-77 E-road14-section3-75 E-road14-section2-73 E-road14-section1-71 E-road14-section0-69 E-road13-section0-54 E-road13-section1-56 E-road13-section2-58 E-road13-section3-60 E-road13-section4-62 E-road13-section5-64 E-road13-section6-66 E-road1-section4-9 E-road1-section3-7 E-road1-section2-5 E-road1-section1-3"/>
    </vehicle>
    <vehicle id="28" type="passenger1" departPos="random" departSpeed="0.0" arrivalPos="random" arrivalSpeed="0.0" depart="28.00">
        <route edges="E-road13-section2-58 E-road13-section3-60 E-road13-section4-62 E-road13-section5-64 E-road13-section6-66 E-road1-section4-9"/>
    </vehicle>
    <vehicle id="29" type="passenger1" departPos="random" departSpeed="0.0" arrivalPos="random" arrivalSpeed="0.0" depart="29.00">
        <route edges="E-road3-section1-20 E-road5-section0-26 E-road4-section0-22 E-road4-section1-24 E-road2-section0-10 E-road2-section1-12 E-road2-section2-14 E-road2-section3-16 E-road6-section0-28 E-road6-section1-30 E-road6-section2-32 E-road6-section3-34 E-road6-section4-36 E-road6-section5-38 E-road6-section6-40 E-road7-section0-42 E-road7-section1-43 E-road7-section2-44 E-road1-section0-0 E-road1-section1-2 E-road1-section2-4 E-road1-section3-6 E-road1-section4-8 E-road10-section0-48 E-road12-section0-52 E-road11-section0-51 E-road15-section0-78 E-road15-section1-80 E-road15-section2-82 E-road15-section3-84 E-road14-section4-77 E-road14-section3-75 E-road14-section2-73 E-road14-section1-71 E-road14-section0-69 E-road13-section0-54 E-road13-section1-56 E-road13-section2-58 E-road13-section3-60 E-road13-section4-62 E-road13-section5-64 E-road13-section6-66 E-road1-section4-9 E-road1-section3-7 E-road1-section2-5 E-road1-section1-3 E-road1-section0-1 E-road9-section0-47 E-road8-section0-45 E-road8-section1-46 E-road6-section6-41 E-road6-section5-39"/>
    </vehicle>
    <vehicle id="30" type="passenger1" departPos="random" departSpeed="0.0" arrivalPos="random" arrivalSpeed="0.0" depart="30.00">
        <route edges="E-road1-section3-7 E-road1-section2-5 E-road1-section1-3 E-road1-section0-1 E-road9-section0-47 E-road8-section0-45 E-road8-section1-46"/>
    </vehicle>
    <vehicle id="31" type="passenger1" departPos="random" departSpeed="0.0" arrivalPos="random" arrivalSpeed="0.0" depart="31.00">
        <route edges="E-road15-section2-83 E-road15-section1-81 E-road15-section0-79 E-road11-section0-50 E-road12-section0-53 E-road10-section0-49 E-road13-section6-67 E-road13-section5-65 E-road13-section4-63 E-road13-section3-61 E-road13-section2-59 E-road13-section1-57 E-road13-section0-55 E-road14-section0-68"/>
    </vehicle>
    <vehicle id="32" type="passenger1" departPos="random" departSpeed="0.0" arrivalPos="random" arrivalSpeed="0.0" depart="32.00">
        <route edges="E-road1-section1-2 E-road1-section2-4 E-road1-section3-6 E-road1-section4-8 E-road13-section6-67 E-road13-section5-65 E-road13-section4-63 E-road13-section3-61 E-road13-section2-59 E-road13-section1-57 E-road13-section0-55"/>
    </vehicle>
    <vehicle id="33" type="passenger1" departPos="random" departSpeed="0.0" arrivalPos="random" arrivalSpeed="0.0" depart="33.00">
        <route edges="E-road14-section0-69 E-road13-section0-54 E-road13-section1-56 E-road13-section2-58 E-road13-section3-60 E-road13-section4-62 E-road13-section5-64 E-road13-section6-66 E-road1-section4-9 E-road1-section3-7 E-road1-section2-5 E-road1-section1-3 E-road1-section0-1 E-road9-section0-47 E-road8-section0-45 E-road8-section1-46 E-road6-section6-41 E-road6-section5-39 E-road6-section4-37 E-road6-section3-35 E-road6-section2-33 E-road6-section1-31 E-road6-section0-29 E-road2-section3-17 E-road2-section2-15 E-road2-section1-13 E-road2-section0-11 E-road4-section1-25 E-road4-section0-23 E-road5-section0-27 E-road3-section1-21 E-road3-section0-19 E-road6-section0-28 E-road6-section1-30 E-road6-section2-32 E-road6-section3-34 E-road6-section4-36 E-road6-section5-38 E-road6-section6-40 E-road7-section0-42"/>
    </vehicle>
    <vehicle id="34" type="passenger1" departPos="random" departSpeed="0.0" arrivalPos="random" arrivalSpeed="0.0" depart="34.00">
        <route edges="E-road14-section2-72 E-road14-section3-74 E-road14-section4-76 E-road15-section3-85 E-road15-section2-83 E-road15-section1-81 E-road15-section0-79 E-road11-section0-50 E-road12-section0-53 E-road10-section0-49 E-road1-section4-9 E-road1-section3-7 E-road1-section2-5 E-road1-section1-3 E-road1-section0-1 E-road9-section0-47 E-road8-section0-45 E-road8-section1-46 E-road6-section6-41 E-road6-section5-39 E-road6-section4-37 E-road6-section3-35 E-road6-section2-33 E-road6-section1-31 E-road6-section0-29 E-road2-section3-17 E-road2-section2-15 E-road2-section1-13 E-road2-section0-11 E-road4-section1-25 E-road4-section0-23 E-road5-section0-27 E-road3-section1-21 E-road3-section0-19 E-road6-section0-28 E-road6-section1-30 E-road6-section2-32 E-road6-section3-34 E-road6-section4-36 E-road6-section5-38 E-road6-section6-40 E-road7-section0-42 E-road7-section1-43 E-road7-section2-44 E-road1-section0-0 E-road1-section1-2 E-road1-section2-4 E-road1-section3-6 E-road1-section4-8 E-road10-section0-48 E-road12-section0-52 E-road11-section0-51 E-road15-section0-78 E-road15-section1-80 E-road15-section2-82 E-road15-section3-84 E-road14-section4-77 E-road14-section3-75 E-road14-section2-73 E-road14-section1-71 E-road14-section0-69 E-road13-section0-54 E-road13-section1-56 E-road13-section2-58 E-road13-section3-60 E-road13-section4-62 E-road13-section5-64 E-road13-section6-66"/>
    </vehicle>
    <vehicle id="35" type="passenger1" departPos="random" departSpeed="0.0" arrivalPos="random" arrivalSpeed="0.0" depart="35.00">
        <route edges="E-road14-section1-70 E-road14-section2-72 E-road14-section3-74 E-road14-section4-76 E-road15-section3-85 E-road15-section2-83 E-road15-section1-81 E-road15-section0-79 E-road11-section0-50 E-road12-section0-53 E-road10-section0-49 E-road1-section4-9 E-road1-section3-7 E-road1-section2-5 E-road1-section1-3 E-road1-section0-1 E-road9-section0-47"/>
    </vehicle>
    <vehicle id="36" type="passenger1" departPos="random" departSpeed="0.0" arrivalPos="random" arrivalSpeed="0.0" depart="36.00">
        <route edges="E-road14-section1-71 E-road14-section0-69 E-road13-section0-54 E-road13-section1-56 E-road13-section2-58 E-road13-section3-60 E-road13-section4-62 E-road13-section5-64 E-road13-section6-66 E-road1-section4-9 E-road1-section3-7 E-road1-section2-5 E-road1-section1-3"/>
    </vehicle>
    <vehicle id="37" type="passenger1" departPos="random" departSpeed="0.0" arrivalPos="random" arrivalSpeed="0.0" depart="37.00">