<?xml version="1.0" encoding="UTF-8"?>

<!-- generated on Sat Aug 17 23:36:22 2019 by Eclipse SUMO netconvert Version v1_2_0+0837-4e29156
<configuration xmlns:xsi="http://www.w3.org/2001/XMLSchema-instance" xsi:noNamespaceSchemaLocation="http://sumo.dlr.de/xsd/netconvertConfiguration.xsd">

    <input>
        <node-files value="sumo.nod.xml"/>
        <edge-files value="sumo.edg.xml"/>
        <connection-files value="sumo.conn.xml"/>
    </input>

    <output>
        <output-file value="net.net.xml"/>
    </output>

    <junctions>
        <junctions.join value="true"/>
    </junctions>

</configuration>
-->

<net version="1.3" junctionCornerDetail="5" limitTurnSpeed="5.50" xmlns:xsi="http://www.w3.org/2001/XMLSchema-instance" xsi:noNamespaceSchemaLocation="http://sumo.dlr.de/xsd/net_file.xsd">

    <location netOffset="1933.93,1996.12" convBoundary="0.00,0.00,2986.57,2090.06" origBoundary="-1950.29,-1996.12,1052.64,114.47" projParameter="!"/>

    <edge id=":cluster_N-junctionr40_N-road2-section0-33_N-road2-section0-36_N-road4-section1-62_N-road4-section1-63_0" function="internal">
        <lane id=":cluster_N-junctionr40_N-road2-section0-33_N-road2-section0-36_N-road4-section1-62_N-road4-section1-63_0_0" index="0" speed="13.89" length="54.12" width="3.58" shape="-0.98,139.64 -7.81,129.47 -8.78,118.19 -3.89,105.81 6.85,92.32"/>
    </edge>
    <edge id=":cluster_N-junctionr40_N-road2-section0-33_N-road2-section0-36_N-road4-section1-62_N-road4-section1-63_1" function="internal">
        <lane id=":cluster_N-junctionr40_N-road2-section0-33_N-road2-section0-36_N-road4-section1-62_N-road4-section1-63_1_0" index="0" speed="12.77" length="38.00" width="4.14" shape="10.82,96.19 4.04,105.10 1.44,113.61 3.02,121.73 8.78,129.45"/>
    </edge>
    <edge id=":cluster_N-junctionr40_N-road2-section0-33_N-road2-section0-36_N-road4-section1-62_N-road4-section1-63_2" function="internal">
        <lane id=":cluster_N-junctionr40_N-road2-section0-33_N-road2-section0-36_N-road4-section1-62_N-road4-section1-63_2_0" index="0" speed="13.31" length="41.37" width="3.84" shape="10.82,96.19 2.82,106.35 -0.64,115.76 0.43,124.42 6.02,132.33"/>
    </edge>
    <edge id=":cluster_N-junctionr40_N-road2-section0-33_N-road2-section0-36_N-road4-section1-62_N-road4-section1-63_3" function="internal">
        <lane id=":cluster_N-junctionr40_N-road2-section0-33_N-road2-section0-36_N-road4-section1-62_N-road4-section1-63_3_0" index="0" speed="13.79" length="44.49" width="3.40" shape="10.82,96.19 1.72,107.49 -2.53,117.71 -1.93,126.86 3.52,134.94"/>
    </edge>
    <edge id=":cluster_N-junctionr41_N-road4-section0-57_N-road4-section0-60_N-road5-section0-66_N-road5-section0-67_0" function="internal">
        <lane id=":cluster_N-junctionr41_N-road4-section0-57_N-road4-section0-60_N-road5-section0-66_N-road5-section0-67_0_0" index="0" speed="13.89" length="42.69" width="3.40" shape="252.40,92.12 221.86,62.30"/>
    </edge>
    <edge id=":cluster_N-junctionr41_N-road4-section0-57_N-road4-section0-60_N-road5-section0-66_N-road5-section0-67_1" function="internal">
        <lane id=":cluster_N-junctionr41_N-road4-section0-57_N-road4-section0-60_N-road5-section0-66_N-road5-section0-67_1_0" index="0" speed="13.89" length="42.62" width="4.11" shape="224.31,59.87 255.18,89.26"/>
    </edge>
    <edge id=":cluster_N-junctionr42_N-road3-section1-54_N-road3-section1-55_N-road5-section0-65_N-road5-section0-68_0" function="internal">
        <lane id=":cluster_N-junctionr42_N-road3-section1-54_N-road3-section1-55_N-road5-section0-65_N-road5-section0-68_0_0" index="0" speed="13.89" length="57.07" width="3.45" shape="564.10,389.85 575.56,403.66 580.49,416.46 578.88,428.25 570.74,439.02"/>
    </edge>
    <edge id=":cluster_N-junctionr42_N-road3-section1-54_N-road3-section1-55_N-road5-section0-65_N-road5-section0-68_1" function="internal">
        <lane id=":cluster_N-junctionr42_N-road3-section1-54_N-road3-section1-55_N-road5-section0-65_N-road5-section0-68_1_0" index="0" speed="13.89" length="54.06" width="3.35" shape="564.10,389.85 574.50,402.61 578.70,414.64 576.68,425.93 568.46,436.49"/>
    </edge>
    <edge id=":cluster_N-junctionr42_N-road3-section1-54_N-road3-section1-55_N-road5-section0-65_N-road5-section0-68_2" function="internal">
        <lane id=":cluster_N-junctionr42_N-road3-section1-54_N-road3-section1-55_N-road5-section0-65_N-road5-section0-68_2_0" index="0" speed="13.89" length="51.15" width="3.32" shape="564.10,389.85 573.47,401.58 576.94,412.85 574.53,423.66 566.23,434.01"/>
    </edge>
    <edge id=":cluster_N-junctionr42_N-road3-section1-54_N-road3-section1-55_N-road5-section0-65_N-road5-section0-68_3" function="internal">
        <lane id=":cluster_N-junctionr42_N-road3-section1-54_N-road3-section1-55_N-road5-section0-65_N-road5-section0-68_3_0" index="0" speed="12.23" length="36.34" width="3.88" shape="557.14,423.91 564.48,415.61 567.62,407.65 566.57,400.02 561.32,392.71"/>
    </edge>
    <edge id=":cluster_N-junctionr43_N-road2-section3-46_N-road2-section3-47_N-road3-section0-49_N-road3-section0-52_N-road6-section0-69_N-road6-section0-72_0" function="internal">
        <lane id=":cluster_N-junctionr43_N-road2-section3-46_N-road2-section3-47_N-road3-section0-49_N-road3-section0-52_N-road6-section0-69_N-road6-section0-72_0_0" index="0" speed="13.89" length="91.18" width="4.01" shape="447.05,585.37 380.86,522.75"/>
        <lane id=":cluster_N-junctionr43_N-road2-section3-46_N-road2-section3-47_N-road3-section0-49_N-road3-section0-52_N-road6-section0-69_N-road6-section0-72_0_1" index="1" speed="13.89" length="91.18" width="3.81" shape="447.05,585.37 383.59,519.95"/>
        <lane id=":cluster_N-junctionr43_N-road2-section3-46_N-road2-section3-47_N-road3-section0-49_N-road3-section0-52_N-road6-section0-69_N-road6-section0-72_0_2" index="2" speed="13.89" length="91.18" width="3.49" shape="447.05,585.37 386.13,517.33"/>
        <lane id=":cluster_N-junctionr43_N-road2-section3-46_N-road2-section3-47_N-road3-section0-49_N-road3-section0-52_N-road6-section0-69_N-road6-section0-72_0_3" index="3" speed="13.89" length="91.18" width="4.01" shape="449.37,582.99 380.86,522.75"/>
        <lane id=":cluster_N-junctionr43_N-road2-section3-46_N-road2-section3-47_N-road3-section0-49_N-road3-section0-52_N-road6-section0-69_N-road6-section0-72_0_4" index="4" speed="13.89" length="91.18" width="3.81" shape="449.37,582.99 383.59,519.95"/>
        <lane id=":cluster_N-junctionr43_N-road2-section3-46_N-road2-section3-47_N-road3-section0-49_N-road3-section0-52_N-road6-section0-69_N-road6-section0-72_0_5" index="5" speed="13.89" length="91.18" width="3.49" shape="449.37,582.99 386.13,517.33"/>
    </edge>
    <edge id=":cluster_N-junctionr43_N-road2-section3-46_N-road2-section3-47_N-road3-section0-49_N-road3-section0-52_N-road6-section0-69_N-road6-section0-72_6" function="internal">
        <lane id=":cluster_N-junctionr43_N-road2-section3-46_N-road2-section3-47_N-road3-section0-49_N-road3-section0-52_N-road6-section0-69_N-road6-section0-72_6_0" index="0" speed="13.89" length="36.42" width="3.36" shape="451.80,580.48 436.31,562.97 430.79,551.16"/>
    </edge>
    <edge id=":cluster_N-junctionr43_N-road2-section3-46_N-road2-section3-47_N-road3-section0-49_N-road3-section0-52_N-road6-section0-69_N-road6-section0-72_7" function="internal">
        <lane id=":cluster_N-junctionr43_N-road2-section3-46_N-road2-section3-47_N-road3-section0-49_N-road3-section0-52_N-road6-section0-69_N-road6-section0-72_7_0" index="0" speed="13.89" length="34.57" width="3.19" shape="451.80,580.48 437.13,563.80 432.10,552.52"/>
    </edge>
    <edge id=":cluster_N-junctionr43_N-road2-section3-46_N-road2-section3-47_N-road3-section0-49_N-road3-section0-52_N-road6-section0-69_N-road6-section0-72_8" function="internal">
        <lane id=":cluster_N-junctionr43_N-road2-section3-46_N-road2-section3-47_N-road3-section0-49_N-road3-section0-52_N-road6-section0-69_N-road6-section0-72_8_0" index="0" speed="13.89" length="31.93" width="3.10" shape="451.80,580.48 438.02,564.50 433.97,554.45"/>
    </edge>
    <edge id=":cluster_N-junctionr43_N-road2-section3-46_N-road2-section3-47_N-road3-section0-49_N-road3-section0-52_N-road6-section0-69_N-road6-section0-72_31" function="internal">
        <lane id=":cluster_N-junctionr43_N-road2-section3-46_N-road2-section3-47_N-road3-section0-49_N-road3-section0-52_N-road6-section0-69_N-road6-section0-72_31_0" index="0" speed="13.89" length="40.35" width="3.36" shape="430.79,551.16 428.93,547.18 431.39,532.15 445.46,516.92"/>
    </edge>
    <edge id=":cluster_N-junctionr43_N-road2-section3-46_N-road2-section3-47_N-road3-section0-49_N-road3-section0-52_N-road6-section0-69_N-road6-section0-72_32" function="internal">
        <lane id=":cluster_N-junctionr43_N-road2-section3-46_N-road2-section3-47_N-road3-section0-49_N-road3-section0-52_N-road6-section0-69_N-road6-section0-72_32_0" index="0" speed="13.89" length="39.26" width="3.19" shape="432.10,552.52 430.45,548.80 433.35,534.40 447.45,519.52"/>
    </edge>
    <edge id=":cluster_N-junctionr43_N-road2-section3-46_N-road2-section3-47_N-road3-section0-49_N-road3-section0-52_N-road6-section0-69_N-road6-section0-72_33" function="internal">
        <lane id=":cluster_N-junctionr43_N-road2-section3-46_N-road2-section3-47_N-road3-section0-49_N-road3-section0-52_N-road6-section0-69_N-road6-section0-72_33_0" index="0" speed="13.89" length="38.74" width="3.10" shape="433.97,554.45 432.22,550.10 435.59,536.28 449.36,522.02"/>
    </edge>
    <edge id=":cluster_N-junctionr43_N-road2-section3-46_N-road2-section3-47_N-road3-section0-49_N-road3-section0-52_N-road6-section0-69_N-road6-section0-72_9" function="internal">
        <lane id=":cluster_N-junctionr43_N-road2-section3-46_N-road2-section3-47_N-road3-section0-49_N-road3-section0-52_N-road6-section0-69_N-road6-section0-72_9_0" index="0" speed="12.27" length="38.72" width="3.23" shape="459.14,534.80 453.46,541.43 452.43,549.11 456.05,557.84 464.32,567.61"/>
    </edge>
    <edge id=":cluster_N-junctionr43_N-road2-section3-46_N-road2-section3-47_N-road3-section0-49_N-road3-section0-52_N-road6-section0-69_N-road6-section0-72_10" function="internal">
        <lane id=":cluster_N-junctionr43_N-road2-section3-46_N-road2-section3-47_N-road3-section0-49_N-road3-section0-52_N-road6-section0-69_N-road6-section0-72_10_0" index="0" speed="12.74" length="41.86" width="4.23" shape="459.14,534.80 452.18,542.46 450.29,550.92 453.47,560.20 461.72,570.28"/>
    </edge>
    <edge id=":cluster_N-junctionr43_N-road2-section3-46_N-road2-section3-47_N-road3-section0-49_N-road3-section0-52_N-road6-section0-69_N-road6-section0-72_11" function="internal">
        <lane id=":cluster_N-junctionr43_N-road2-section3-46_N-road2-section3-47_N-road3-section0-49_N-road3-section0-52_N-road6-section0-69_N-road6-section0-72_11_0" index="0" speed="13.24" length="45.29" width="3.68" shape="459.14,534.80 450.81,543.54 448.01,552.85 450.72,562.70 458.96,573.12"/>
    </edge>
    <edge id=":cluster_N-junctionr43_N-road2-section3-46_N-road2-section3-47_N-road3-section0-49_N-road3-section0-52_N-road6-section0-69_N-road6-section0-72_12" function="internal">
        <lane id=":cluster_N-junctionr43_N-road2-section3-46_N-road2-section3-47_N-road3-section0-49_N-road3-section0-52_N-road6-section0-69_N-road6-section0-72_12_0" index="0" speed="13.66" length="48.32" width="3.14" shape="459.14,534.80 449.64,544.48 446.04,554.50 448.36,564.86 456.58,575.56"/>
    </edge>
    <edge id=":cluster_N-junctionr43_N-road2-section3-46_N-road2-section3-47_N-road3-section0-49_N-road3-section0-52_N-road6-section0-69_N-road6-section0-72_13" function="internal">
        <lane id=":cluster_N-junctionr43_N-road2-section3-46_N-road2-section3-47_N-road3-section0-49_N-road3-section0-52_N-road6-section0-69_N-road6-section0-72_13_0" index="0" speed="13.89" length="80.48" width="4.01" shape="453.42,527.32 434.63,537.93 416.28,540.70 398.35,535.64 380.86,522.75"/>
    </edge>
    <edge id=":cluster_N-junctionr43_N-road2-section3-46_N-road2-section3-47_N-road3-section0-49_N-road3-section0-52_N-road6-section0-69_N-road6-section0-72_14" function="internal">
        <lane id=":cluster_N-junctionr43_N-road2-section3-46_N-road2-section3-47_N-road3-section0-49_N-road3-section0-52_N-road6-section0-69_N-road6-section0-72_14_0" index="0" speed="13.89" length="77.69" width="3.81" shape="453.42,527.32 435.98,536.85 418.53,538.80 401.07,533.16 383.59,519.95"/>
    </edge>
    <edge id=":cluster_N-junctionr43_N-road2-section3-46_N-road2-section3-47_N-road3-section0-49_N-road3-section0-52_N-road6-section0-69_N-road6-section0-72_15" function="internal">
        <lane id=":cluster_N-junctionr43_N-road2-section3-46_N-road2-section3-47_N-road3-section0-49_N-road3-section0-52_N-road6-section0-69_N-road6-section0-72_15_0" index="0" speed="13.89" length="75.14" width="3.49" shape="453.42,527.32 437.24,535.85 420.63,537.02 403.60,530.85 386.13,517.33"/>
    </edge>
    <edge id=":cluster_N-junctionr43_N-road2-section3-46_N-road2-section3-47_N-road3-section0-49_N-road3-section0-52_N-road6-section0-69_N-road6-section0-72_16" function="internal">
        <lane id=":cluster_N-junctionr43_N-road2-section3-46_N-road2-section3-47_N-road3-section0-49_N-road3-section0-52_N-road6-section0-69_N-road6-section0-72_16_0" index="0" speed="13.89" length="51.95" width="3.36" shape="399.91,503.17 413.17,514.29 425.18,520.29 435.94,521.17 445.46,516.92"/>
    </edge>
    <edge id=":cluster_N-junctionr43_N-road2-section3-46_N-road2-section3-47_N-road3-section0-49_N-road3-section0-52_N-road6-section0-69_N-road6-section0-72_17" function="internal">
        <lane id=":cluster_N-junctionr43_N-road2-section3-46_N-road2-section3-47_N-road3-section0-49_N-road3-section0-52_N-road6-section0-69_N-road6-section0-72_17_0" index="0" speed="13.89" length="54.60" width="3.19" shape="399.91,503.17 414.17,515.32 426.85,522.10 437.94,523.50 447.45,519.52"/>
    </edge>
    <edge id=":cluster_N-junctionr43_N-road2-section3-46_N-road2-section3-47_N-road3-section0-49_N-road3-section0-52_N-road6-section0-69_N-road6-section0-72_18" function="internal">
        <lane id=":cluster_N-junctionr43_N-road2-section3-46_N-road2-section3-47_N-road3-section0-49_N-road3-section0-52_N-road6-section0-69_N-road6-section0-72_18_0" index="0" speed="13.89" length="57.18" width="3.10" shape="399.91,503.17 415.14,516.32 428.46,523.84 439.86,525.74 449.36,522.02"/>
    </edge>
    <edge id=":cluster_N-junctionr43_N-road2-section3-46_N-road2-section3-47_N-road3-section0-49_N-road3-section0-52_N-road6-section0-69_N-road6-section0-72_19" function="internal">
        <lane id=":cluster_N-junctionr43_N-road2-section3-46_N-road2-section3-47_N-road3-section0-49_N-road3-section0-52_N-road6-section0-69_N-road6-section0-72_19_0" index="0" speed="13.89" length="91.25" width="3.23" shape="397.88,505.25 464.32,567.61"/>
        <lane id=":cluster_N-junctionr43_N-road2-section3-46_N-road2-section3-47_N-road3-section0-49_N-road3-section0-52_N-road6-section0-69_N-road6-section0-72_19_1" index="1" speed="13.89" length="91.25" width="4.23" shape="397.88,505.25 461.72,570.28"/>
        <lane id=":cluster_N-junctionr43_N-road2-section3-46_N-road2-section3-47_N-road3-section0-49_N-road3-section0-52_N-road6-section0-69_N-road6-section0-72_19_2" index="2" speed="13.89" length="91.25" width="3.68" shape="397.88,505.25 458.96,573.12"/>
        <lane id=":cluster_N-junctionr43_N-road2-section3-46_N-road2-section3-47_N-road3-section0-49_N-road3-section0-52_N-road6-section0-69_N-road6-section0-72_19_3" index="3" speed="13.89" length="91.25" width="3.14" shape="397.88,505.25 412.55,521.68 428.53,541.76 443.87,561.16 456.58,575.56"/>
        <lane id=":cluster_N-junctionr43_N-road2-section3-46_N-road2-section3-47_N-road3-section0-49_N-road3-section0-52_N-road6-section0-69_N-road6-section0-72_19_4" index="4" speed="13.89" length="91.25" width="3.23" shape="395.61,507.59 464.32,567.61"/>
        <lane id=":cluster_N-junctionr43_N-road2-section3-46_N-road2-section3-47_N-road3-section0-49_N-road3-section0-52_N-road6-section0-69_N-road6-section0-72_19_5" index="5" speed="13.89" length="91.25" width="4.23" shape="395.61,507.59 461.72,570.28"/>
        <lane id=":cluster_N-junctionr43_N-road2-section3-46_N-road2-section3-47_N-road3-section0-49_N-road3-section0-52_N-road6-section0-69_N-road6-section0-72_19_6" index="6" speed="13.89" length="91.25" width="3.68" shape="395.61,507.59 458.96,573.12"/>
        <lane id=":cluster_N-junctionr43_N-road2-section3-46_N-road2-section3-47_N-road3-section0-49_N-road3-section0-52_N-road6-section0-69_N-road6-section0-72_19_7" index="7" speed="13.89" length="91.25" width="3.14" shape="395.61,507.59 456.58,575.56"/>
        <lane id=":cluster_N-junctionr43_N-road2-section3-46_N-road2-section3-47_N-road3-section0-49_N-road3-section0-52_N-road6-section0-69_N-road6-section0-72_19_8" index="8" speed="13.89" length="91.25" width="3.23" shape="393.21,510.06 409.81,524.50 430.06,540.19 449.66,555.20 464.32,567.61"/>
        <lane id=":cluster_N-junctionr43_N-road2-section3-46_N-road2-section3-47_N-road3-section0-49_N-road3-section0-52_N-road6-section0-69_N-road6-section0-72_19_9" index="9" speed="13.89" length="91.25" width="4.23" shape="393.21,510.06 461.72,570.28"/>
        <lane id=":cluster_N-junctionr43_N-road2-section3-46_N-road2-section3-47_N-road3-section0-49_N-road3-section0-52_N-road6-section0-69_N-road6-section0-72_19_10" index="10" speed="13.89" length="91.25" width="3.68" shape="393.21,510.06 458.96,573.12"/>
        <lane id=":cluster_N-junctionr43_N-road2-section3-46_N-road2-section3-47_N-road3-section0-49_N-road3-section0-52_N-road6-section0-69_N-road6-section0-72_19_11" index="11" speed="13.89" length="91.25" width="3.14" shape="393.21,510.06 456.58,575.56"/>
    </edge>
    <edge id=":cluster_N-junctionr55_N-road10-section0-110_N-road10-section0-111_N-road12-section0-117_N-road12-section0-120_0" function="internal">
        <lane id=":cluster_N-junctionr55_N-road10-section0-110_N-road10-section0-111_N-road12-section0-117_N-road12-section0-120_0_0" index="0" speed="13.89" length="49.85" width="3.24" shape="1804.07,1878.31 1816.37,1888.72 1827.65,1895.98 1837.90,1900.11 1847.12,1901.09"/>
    </edge>
    <edge id=":cluster_N-junctionr55_N-road10-section0-110_N-road10-section0-111_N-road12-section0-117_N-road12-section0-120_1" function="internal">
        <lane id=":cluster_N-junctionr55_N-road10-section0-110_N-road10-section0-111_N-road12-section0-117_N-road12-section0-120_1_0" index="0" speed="13.89" length="51.52" width="3.53" shape="1804.07,1878.31 1817.66,1890.11 1829.40,1898.41 1839.29,1903.19 1847.35,1904.47"/>
    </edge>
    <edge id=":cluster_N-junctionr55_N-road10-section0-110_N-road10-section0-111_N-road12-section0-117_N-road12-section0-120_2" function="internal">
        <lane id=":cluster_N-junctionr55_N-road10-section0-110_N-road10-section0-111_N-road12-section0-117_N-road12-section0-120_2_0" index="0" speed="13.89" length="53.60" width="4.38" shape="1804.07,1878.31 1819.16,1891.75 1831.44,1901.24 1840.93,1906.80 1847.61,1908.41"/>
    </edge>
    <edge id=":cluster_N-junctionr55_N-road10-section0-110_N-road10-section0-111_N-road12-section0-117_N-road12-section0-120_3" function="internal">
        <lane id=":cluster_N-junctionr55_N-road10-section0-110_N-road10-section0-111_N-road12-section0-117_N-road12-section0-120_3_0" index="0" speed="13.89" length="51.08" width="3.24" shape="1801.71,1880.83 1813.28,1890.25 1824.70,1896.77 1835.98,1900.38 1847.12,1901.09"/>
    </edge>
    <edge id=":cluster_N-junctionr55_N-road10-section0-110_N-road10-section0-111_N-road12-section0-117_N-road12-section0-120_4" function="internal">
        <lane id=":cluster_N-junctionr55_N-road10-section0-110_N-road10-section0-111_N-road12-section0-117_N-road12-section0-120_4_0" index="0" speed="13.89" length="52.63" width="3.53" shape="1801.71,1880.83 1814.56,1891.65 1826.45,1899.20 1837.38,1903.47 1847.35,1904.47"/>
    </edge>
    <edge id=":cluster_N-junctionr55_N-road10-section0-110_N-road10-section0-111_N-road12-section0-117_N-road12-section0-120_5" function="internal">
        <lane id=":cluster_N-junctionr55_N-road10-section0-110_N-road10-section0-111_N-road12-section0-117_N-road12-section0-120_5_0" index="0" speed="13.89" length="54.57" width="4.38" shape="1801.71,1880.83 1816.06,1893.28 1828.49,1902.03 1839.01,1907.08 1847.61,1908.41"/>
    </edge>
    <edge id=":cluster_N-junctionr55_N-road10-section0-110_N-road10-section0-111_N-road12-section0-117_N-road12-section0-120_6" function="internal">
        <lane id=":cluster_N-junctionr55_N-road10-section0-110_N-road10-section0-111_N-road12-section0-117_N-road12-section0-120_6_0" index="0" speed="13.89" length="52.49" width="3.24" shape="1799.23,1883.49 1810.01,1891.87 1821.59,1897.60 1833.96,1900.68 1847.12,1901.09"/>
    </edge>
    <edge id=":cluster_N-junctionr55_N-road10-section0-110_N-road10-section0-111_N-road12-section0-117_N-road12-section0-120_7" function="internal">
        <lane id=":cluster_N-junctionr55_N-road10-section0-110_N-road10-section0-111_N-road12-section0-117_N-road12-section0-120_7_0" index="0" speed="13.89" length="53.94" width="3.53" shape="1799.23,1883.49 1811.30,1893.27 1823.34,1900.03 1835.36,1903.76 1847.35,1904.47"/>
    </edge>
    <edge id=":cluster_N-junctionr55_N-road10-section0-110_N-road10-section0-111_N-road12-section0-117_N-road12-section0-120_8" function="internal">
        <lane id=":cluster_N-junctionr55_N-road10-section0-110_N-road10-section0-111_N-road12-section0-117_N-road12-section0-120_8_0" index="0" speed="13.89" length="55.75" width="4.38" shape="1799.23,1883.49 1812.80,1894.91 1825.38,1902.87 1836.99,1907.37 1847.61,1908.41"/>
    </edge>
    <edge id=":cluster_N-junctionr55_N-road10-section0-110_N-road10-section0-111_N-road12-section0-117_N-road12-section0-120_9" function="internal">
        <lane id=":cluster_N-junctionr55_N-road10-section0-110_N-road10-section0-111_N-road12-section0-117_N-road12-section0-120_9_0" index="0" speed="13.89" length="48.47" width="3.08" shape="1814.43,1933.83 1813.12,1924.95 1808.61,1915.25 1800.88,1904.74 1789.95,1893.41"/>
    </edge>
    <edge id=":cluster_N-junctionr55_N-road10-section0-110_N-road10-section0-111_N-road12-section0-117_N-road12-section0-120_10" function="internal">
        <lane id=":cluster_N-junctionr55_N-road10-section0-110_N-road10-section0-111_N-road12-section0-117_N-road12-section0-120_10_0" index="0" speed="13.89" length="49.63" width="3.22" shape="1814.43,1933.83 1813.32,1923.24 1809.22,1912.59 1802.15,1901.88 1792.10,1891.11"/>
    </edge>
    <edge id=":cluster_N-junctionr55_N-road10-section0-110_N-road10-section0-111_N-road12-section0-117_N-road12-section0-120_11" function="internal">
        <lane id=":cluster_N-junctionr55_N-road10-section0-110_N-road10-section0-111_N-road12-section0-117_N-road12-section0-120_11_0" index="0" speed="13.89" length="50.95" width="3.37" shape="1814.43,1933.83 1813.52,1921.45 1809.87,1909.80 1803.48,1898.89 1794.35,1888.70"/>
    </edge>
    <edge id=":cluster_N-junctionr55_N-road10-section0-110_N-road10-section0-111_N-road12-section0-117_N-road12-section0-120_12" function="internal">
        <lane id=":cluster_N-junctionr55_N-road10-section0-110_N-road10-section0-111_N-road12-section0-117_N-road12-section0-120_12_0" index="0" speed="13.89" length="52.44" width="3.56" shape="1814.43,1933.83 1813.73,1919.57 1810.54,1906.87 1804.87,1895.74 1796.72,1886.17"/>
    </edge>
    <edge id=":cluster_N-junctionr55_N-road10-section0-110_N-road10-section0-111_N-road12-section0-117_N-road12-section0-120_13" function="internal">
        <lane id=":cluster_N-junctionr55_N-road10-section0-110_N-road10-section0-111_N-road12-section0-117_N-road12-section0-120_13_0" index="0" speed="13.89" length="50.23" width="3.08" shape="1817.83,1933.96 1816.28,1926.18 1811.11,1916.83 1802.34,1905.90 1789.95,1893.41"/>
    </edge>
    <edge id=":cluster_N-junctionr55_N-road10-section0-110_N-road10-section0-111_N-road12-section0-117_N-road12-section0-120_14" function="internal">
        <lane id=":cluster_N-junctionr55_N-road10-section0-110_N-road10-section0-111_N-road12-section0-117_N-road12-section0-120_14_0" index="0" speed="13.89" length="51.28" width="3.22" shape="1817.83,1933.96 1816.47,1924.47 1811.73,1914.16 1803.60,1903.04 1792.10,1891.11"/>
    </edge>
    <edge id=":cluster_N-junctionr55_N-road10-section0-110_N-road10-section0-111_N-road12-section0-117_N-road12-section0-120_15" function="internal">
        <lane id=":cluster_N-junctionr55_N-road10-section0-110_N-road10-section0-111_N-road12-section0-117_N-road12-section0-120_15_0" index="0" speed="13.89" length="52.50" width="3.37" shape="1817.83,1933.96 1816.67,1922.68 1812.37,1911.38 1804.93,1900.05 1794.35,1888.70"/>
    </edge>
    <edge id=":cluster_N-junctionr55_N-road10-section0-110_N-road10-section0-111_N-road12-section0-117_N-road12-section0-120_16" function="internal">
        <lane id=":cluster_N-junctionr55_N-road10-section0-110_N-road10-section0-111_N-road12-section0-117_N-road12-section0-120_16_0" index="0" speed="13.89" length="53.89" width="3.56" shape="1817.83,1933.96 1816.88,1920.80 1813.04,1908.45 1806.32,1896.91 1796.72,1886.17"/>
    </edge>
    <edge id=":cluster_N-junctionr55_N-road10-section0-110_N-road10-section0-111_N-road12-section0-117_N-road12-section0-120_17" function="internal">
        <lane id=":cluster_N-junctionr55_N-road10-section0-110_N-road10-section0-111_N-road12-section0-117_N-road12-section0-120_17_0" index="0" speed="13.89" length="52.47" width="3.08" shape="1821.93,1934.10 1820.07,1927.65 1814.12,1918.72 1804.08,1907.30 1789.95,1893.41"/>
    </edge>
    <edge id=":cluster_N-junctionr55_N-road10-section0-110_N-road10-section0-111_N-road12-section0-117_N-road12-section0-120_18" function="internal">
        <lane id=":cluster_N-junctionr55_N-road10-section0-110_N-road10-section0-111_N-road12-section0-117_N-road12-section0-120_18_0" index="0" speed="13.89" length="53.39" width="3.22" shape="1821.93,1934.10 1820.26,1925.94 1814.74,1916.06 1805.35,1904.44 1792.10,1891.11"/>
    </edge>
    <edge id=":cluster_N-junctionr55_N-road10-section0-110_N-road10-section0-111_N-road12-section0-117_N-road12-section0-120_19" function="internal">
        <lane id=":cluster_N-junctionr55_N-road10-section0-110_N-road10-section0-111_N-road12-section0-117_N-road12-section0-120_19_0" index="0" speed="13.89" length="54.48" width="3.37" shape="1821.93,1934.10 1820.46,1924.15 1815.38,1913.27 1806.67,1901.45 1794.35,1888.70"/>
    </edge>
    <edge id=":cluster_N-junctionr55_N-road10-section0-110_N-road10-section0-111_N-road12-section0-117_N-road12-section0-120_20" function="internal">
        <lane id=":cluster_N-junctionr55_N-road10-section0-110_N-road10-section0-111_N-road12-section0-117_N-road12-section0-120_20_0" index="0" speed="13.89" length="55.75" width="3.56" shape="1821.93,1934.10 1820.67,1922.27 1816.05,1910.34 1808.07,1898.31 1796.72,1886.17"/>
    </edge>
    <edge id=":cluster_N-junctionr56_N-road11-section0-114_N-road11-section0-115_N-road12-section0-118_N-road12-section0-119_0" function="internal">
        <lane id=":cluster_N-junctionr56_N-road11-section0-114_N-road11-section0-115_N-road12-section0-118_N-road12-section0-119_0_0" index="0" speed="13.89" length="57.92" width="3.40" shape="1960.22,2058.14 1950.18,2049.61 1938.22,2040.27 1925.62,2032.91 1913.66,2030.33"/>
        <lane id=":cluster_N-junctionr56_N-road11-section0-114_N-road11-section0-115_N-road12-section0-118_N-road12-section0-119_0_1" index="1" speed="13.89" length="57.92" width="3.42" shape="1960.22,2058.14 1950.15,2049.08 1938.11,2038.57 1925.43,2030.04 1913.43,2026.93"/>
        <lane id=":cluster_N-junctionr56_N-road11-section0-114_N-road11-section0-115_N-road12-section0-118_N-road12-section0-119_0_2" index="2" speed="13.89" length="57.92" width="4.78" shape="1960.22,2058.14 1950.10,2048.44 1937.97,2036.52 1925.20,2026.58 1913.16,2022.83"/>
        <lane id=":cluster_N-junctionr56_N-road11-section0-114_N-road11-section0-115_N-road12-section0-118_N-road12-section0-119_0_3" index="3" speed="13.89" length="57.92" width="3.40" shape="1962.61,2055.26 1952.20,2047.18 1939.42,2038.83 1926.00,2032.46 1913.66,2030.33"/>
        <lane id=":cluster_N-junctionr56_N-road11-section0-114_N-road11-section0-115_N-road12-section0-118_N-road12-section0-119_0_4" index="4" speed="13.89" length="57.92" width="3.42" shape="1962.61,2055.26 1952.16,2046.65 1939.31,2037.13 1925.81,2029.59 1913.43,2026.93"/>
        <lane id=":cluster_N-junctionr56_N-road11-section0-114_N-road11-section0-115_N-road12-section0-118_N-road12-section0-119_0_5" index="5" speed="13.89" length="57.92" width="4.78" shape="1962.61,2055.26 1952.12,2046.01 1939.17,2035.08 1925.58,2026.13 1913.16,2022.83"/>
        <lane id=":cluster_N-junctionr56_N-road11-section0-114_N-road11-section0-115_N-road12-section0-118_N-road12-section0-119_0_6" index="6" speed="13.89" length="57.92" width="3.40" shape="1964.92,2052.48 1954.14,2044.84 1940.57,2037.44 1926.36,2032.02 1913.66,2030.33"/>
        <lane id=":cluster_N-junctionr56_N-road11-section0-114_N-road11-section0-115_N-road12-section0-118_N-road12-section0-119_0_7" index="7" speed="13.89" length="57.92" width="3.42" shape="1964.92,2052.48 1954.11,2044.31 1940.46,2035.74 1926.17,2029.15 1913.43,2026.93"/>
        <lane id=":cluster_N-junctionr56_N-road11-section0-114_N-road11-section0-115_N-road12-section0-118_N-road12-section0-119_0_8" index="8" speed="13.89" length="57.92" width="4.78" shape="1964.92,2052.48 1954.06,2043.67 1940.32,2033.69 1925.94,2025.70 1913.16,2022.83"/>
    </edge>
    <edge id=":cluster_N-junctionr56_N-road11-section0-114_N-road11-section0-115_N-road12-section0-118_N-road12-section0-119_9" function="internal">